# generated using pymatgen
data_Ti94Al25Cr6
_symmetry_space_group_name_H-M   'P 1'
_cell_length_a   14.23494906
_cell_length_b   14.23494906
_cell_length_c   14.23494906
_cell_angle_alpha   90.00000000
_cell_angle_beta   90.00000000
_cell_angle_gamma   90.00000000
_symmetry_Int_Tables_number   1
_chemical_formula_structural   Ti94Al25Cr6
_chemical_formula_sum   'Ti188 Al50 Cr12'
_cell_volume   2884.48146339
_cell_formula_units_Z   2
loop_
 _symmetry_equiv_pos_site_id
 _symmetry_equiv_pos_as_xyz
  1  'x, y, z'
loop_
 _atom_site_type_symbol
 _atom_site_label
 _atom_site_symmetry_multiplicity
 _atom_site_fract_x
 _atom_site_fract_y
 _atom_site_fract_z
 _atom_site_occupancy
  Al  Al0  1  0.00000000  0.00000000  0.00000000  1
  Ti  Ti1  1  0.00000000  0.00000000  0.20000000  1
  Ti  Ti2  1  0.00000000  0.00000000  0.40000000  1
  Ti  Ti3  1  0.00000000  0.00000000  0.60000000  1
  Al  Al4  1  0.00000000  0.00000000  0.80000000  1
  Ti  Ti5  1  0.00000000  0.20000000  0.00000000  1
  Ti  Ti6  1  0.00000000  0.20000000  0.20000000  1
  Ti  Ti7  1  0.00000000  0.20000000  0.40000000  1
  Ti  Ti8  1  0.00000000  0.20000000  0.60000000  1
  Al  Al9  1  0.00000000  0.20000000  0.80000000  1
  Cr  Cr10  1  0.00000000  0.40000000  0.00000000  1
  Cr  Cr11  1  0.00000000  0.40000000  0.20000000  1
  Ti  Ti12  1  0.00000000  0.40000000  0.40000000  1
  Ti  Ti13  1  0.00000000  0.40000000  0.60000000  1
  Ti  Ti14  1  0.00000000  0.40000000  0.80000000  1
  Ti  Ti15  1  0.00000000  0.60000000  0.00000000  1
  Ti  Ti16  1  0.00000000  0.60000000  0.20000000  1
  Al  Al17  1  0.00000000  0.60000000  0.40000000  1
  Al  Al18  1  0.00000000  0.60000000  0.60000000  1
  Ti  Ti19  1  0.00000000  0.60000000  0.80000000  1
  Al  Al20  1  0.00000000  0.80000000  0.00000000  1
  Ti  Ti21  1  0.00000000  0.80000000  0.20000000  1
  Ti  Ti22  1  0.00000000  0.80000000  0.40000000  1
  Cr  Cr23  1  0.00000000  0.80000000  0.60000000  1
  Ti  Ti24  1  0.00000000  0.80000000  0.80000000  1
  Al  Al25  1  0.20000000  0.00000000  0.00000000  1
  Al  Al26  1  0.20000000  0.00000000  0.20000000  1
  Ti  Ti27  1  0.20000000  0.00000000  0.40000000  1
  Ti  Ti28  1  0.20000000  0.00000000  0.60000000  1
  Al  Al29  1  0.20000000  0.00000000  0.80000000  1
  Ti  Ti30  1  0.20000000  0.20000000  0.00000000  1
  Ti  Ti31  1  0.20000000  0.20000000  0.20000000  1
  Ti  Ti32  1  0.20000000  0.20000000  0.40000000  1
  Al  Al33  1  0.20000000  0.20000000  0.60000000  1
  Ti  Ti34  1  0.20000000  0.20000000  0.80000000  1
  Cr  Cr35  1  0.20000000  0.40000000  0.00000000  1
  Ti  Ti36  1  0.20000000  0.40000000  0.20000000  1
  Ti  Ti37  1  0.20000000  0.40000000  0.40000000  1
  Al  Al38  1  0.20000000  0.40000000  0.60000000  1
  Ti  Ti39  1  0.20000000  0.40000000  0.80000000  1
  Ti  Ti40  1  0.20000000  0.60000000  0.00000000  1
  Al  Al41  1  0.20000000  0.60000000  0.20000000  1
  Ti  Ti42  1  0.20000000  0.60000000  0.40000000  1
  Al  Al43  1  0.20000000  0.60000000  0.60000000  1
  Al  Al44  1  0.20000000  0.60000000  0.80000000  1
  Ti  Ti45  1  0.20000000  0.80000000  0.00000000  1
  Cr  Cr46  1  0.20000000  0.80000000  0.20000000  1
  Ti  Ti47  1  0.20000000  0.80000000  0.40000000  1
  Ti  Ti48  1  0.20000000  0.80000000  0.60000000  1
  Ti  Ti49  1  0.20000000  0.80000000  0.80000000  1
  Ti  Ti50  1  0.40000000  0.00000000  0.00000000  1
  Ti  Ti51  1  0.40000000  0.00000000  0.20000000  1
  Al  Al52  1  0.40000000  0.00000000  0.40000000  1
  Al  Al53  1  0.40000000  0.00000000  0.60000000  1
  Ti  Ti54  1  0.40000000  0.00000000  0.80000000  1
  Ti  Ti55  1  0.40000000  0.20000000  0.00000000  1
  Ti  Ti56  1  0.40000000  0.20000000  0.20000000  1
  Ti  Ti57  1  0.40000000  0.20000000  0.40000000  1
  Al  Al58  1  0.40000000  0.20000000  0.60000000  1
  Ti  Ti59  1  0.40000000  0.20000000  0.80000000  1
  Ti  Ti60  1  0.40000000  0.40000000  0.00000000  1
  Ti  Ti61  1  0.40000000  0.40000000  0.20000000  1
  Ti  Ti62  1  0.40000000  0.40000000  0.40000000  1
  Ti  Ti63  1  0.40000000  0.40000000  0.60000000  1
  Ti  Ti64  1  0.40000000  0.40000000  0.80000000  1
  Ti  Ti65  1  0.40000000  0.60000000  0.00000000  1
  Al  Al66  1  0.40000000  0.60000000  0.20000000  1
  Ti  Ti67  1  0.40000000  0.60000000  0.40000000  1
  Ti  Ti68  1  0.40000000  0.60000000  0.60000000  1
  Ti  Ti69  1  0.40000000  0.60000000  0.80000000  1
  Ti  Ti70  1  0.40000000  0.80000000  0.00000000  1
  Ti  Ti71  1  0.40000000  0.80000000  0.20000000  1
  Al  Al72  1  0.40000000  0.80000000  0.40000000  1
  Al  Al73  1  0.40000000  0.80000000  0.60000000  1
  Al  Al74  1  0.40000000  0.80000000  0.80000000  1
  Ti  Ti75  1  0.60000000  0.00000000  0.00000000  1
  Ti  Ti76  1  0.60000000  0.00000000  0.20000000  1
  Ti  Ti77  1  0.60000000  0.00000000  0.40000000  1
  Ti  Ti78  1  0.60000000  0.00000000  0.60000000  1
  Ti  Ti79  1  0.60000000  0.00000000  0.80000000  1
  Ti  Ti80  1  0.60000000  0.20000000  0.00000000  1
  Ti  Ti81  1  0.60000000  0.20000000  0.20000000  1
  Ti  Ti82  1  0.60000000  0.20000000  0.40000000  1
  Ti  Ti83  1  0.60000000  0.20000000  0.60000000  1
  Ti  Ti84  1  0.60000000  0.20000000  0.80000000  1
  Ti  Ti85  1  0.60000000  0.40000000  0.00000000  1
  Al  Al86  1  0.60000000  0.40000000  0.20000000  1
  Ti  Ti87  1  0.60000000  0.40000000  0.40000000  1
  Ti  Ti88  1  0.60000000  0.40000000  0.60000000  1
  Ti  Ti89  1  0.60000000  0.40000000  0.80000000  1
  Ti  Ti90  1  0.60000000  0.60000000  0.00000000  1
  Al  Al91  1  0.60000000  0.60000000  0.20000000  1
  Ti  Ti92  1  0.60000000  0.60000000  0.40000000  1
  Al  Al93  1  0.60000000  0.60000000  0.60000000  1
  Ti  Ti94  1  0.60000000  0.60000000  0.80000000  1
  Ti  Ti95  1  0.60000000  0.80000000  0.00000000  1
  Ti  Ti96  1  0.60000000  0.80000000  0.20000000  1
  Ti  Ti97  1  0.60000000  0.80000000  0.40000000  1
  Ti  Ti98  1  0.60000000  0.80000000  0.60000000  1
  Ti  Ti99  1  0.60000000  0.80000000  0.80000000  1
  Ti  Ti100  1  0.80000000  0.00000000  0.00000000  1
  Ti  Ti101  1  0.80000000  0.00000000  0.20000000  1
  Ti  Ti102  1  0.80000000  0.00000000  0.40000000  1
  Ti  Ti103  1  0.80000000  0.00000000  0.60000000  1
  Cr  Cr104  1  0.80000000  0.00000000  0.80000000  1
  Ti  Ti105  1  0.80000000  0.20000000  0.00000000  1
  Ti  Ti106  1  0.80000000  0.20000000  0.20000000  1
  Al  Al107  1  0.80000000  0.20000000  0.40000000  1
  Ti  Ti108  1  0.80000000  0.20000000  0.60000000  1
  Ti  Ti109  1  0.80000000  0.20000000  0.80000000  1
  Ti  Ti110  1  0.80000000  0.40000000  0.00000000  1
  Ti  Ti111  1  0.80000000  0.40000000  0.20000000  1
  Ti  Ti112  1  0.80000000  0.40000000  0.40000000  1
  Ti  Ti113  1  0.80000000  0.40000000  0.60000000  1
  Ti  Ti114  1  0.80000000  0.40000000  0.80000000  1
  Ti  Ti115  1  0.80000000  0.60000000  0.00000000  1
  Ti  Ti116  1  0.80000000  0.60000000  0.20000000  1
  Al  Al117  1  0.80000000  0.60000000  0.40000000  1
  Ti  Ti118  1  0.80000000  0.60000000  0.60000000  1
  Al  Al119  1  0.80000000  0.60000000  0.80000000  1
  Ti  Ti120  1  0.80000000  0.80000000  0.00000000  1
  Ti  Ti121  1  0.80000000  0.80000000  0.20000000  1
  Ti  Ti122  1  0.80000000  0.80000000  0.40000000  1
  Ti  Ti123  1  0.80000000  0.80000000  0.60000000  1
  Ti  Ti124  1  0.80000000  0.80000000  0.80000000  1
  Ti  Ti125  1  0.10000000  0.10000000  0.10000000  1
  Ti  Ti126  1  0.10000000  0.10000000  0.30000000  1
  Ti  Ti127  1  0.10000000  0.10000000  0.50000000  1
  Al  Al128  1  0.10000000  0.10000000  0.70000000  1
  Al  Al129  1  0.10000000  0.10000000  0.90000000  1
  Ti  Ti130  1  0.10000000  0.30000000  0.10000000  1
  Ti  Ti131  1  0.10000000  0.30000000  0.30000000  1
  Al  Al132  1  0.10000000  0.30000000  0.50000000  1
  Ti  Ti133  1  0.10000000  0.30000000  0.70000000  1
  Ti  Ti134  1  0.10000000  0.30000000  0.90000000  1
  Al  Al135  1  0.10000000  0.50000000  0.10000000  1
  Ti  Ti136  1  0.10000000  0.50000000  0.30000000  1
  Ti  Ti137  1  0.10000000  0.50000000  0.50000000  1
  Ti  Ti138  1  0.10000000  0.50000000  0.70000000  1
  Ti  Ti139  1  0.10000000  0.50000000  0.90000000  1
  Ti  Ti140  1  0.10000000  0.70000000  0.10000000  1
  Ti  Ti141  1  0.10000000  0.70000000  0.30000000  1
  Cr  Cr142  1  0.10000000  0.70000000  0.50000000  1
  Al  Al143  1  0.10000000  0.70000000  0.70000000  1
  Al  Al144  1  0.10000000  0.70000000  0.90000000  1
  Ti  Ti145  1  0.10000000  0.90000000  0.10000000  1
  Ti  Ti146  1  0.10000000  0.90000000  0.30000000  1
  Al  Al147  1  0.10000000  0.90000000  0.50000000  1
  Ti  Ti148  1  0.10000000  0.90000000  0.70000000  1
  Al  Al149  1  0.10000000  0.90000000  0.90000000  1
  Cr  Cr150  1  0.30000000  0.10000000  0.10000000  1
  Ti  Ti151  1  0.30000000  0.10000000  0.30000000  1
  Ti  Ti152  1  0.30000000  0.10000000  0.50000000  1
  Ti  Ti153  1  0.30000000  0.10000000  0.70000000  1
  Al  Al154  1  0.30000000  0.10000000  0.90000000  1
  Ti  Ti155  1  0.30000000  0.30000000  0.10000000  1
  Ti  Ti156  1  0.30000000  0.30000000  0.30000000  1
  Ti  Ti157  1  0.30000000  0.30000000  0.50000000  1
  Ti  Ti158  1  0.30000000  0.30000000  0.70000000  1
  Ti  Ti159  1  0.30000000  0.30000000  0.90000000  1
  Ti  Ti160  1  0.30000000  0.50000000  0.10000000  1
  Ti  Ti161  1  0.30000000  0.50000000  0.30000000  1
  Ti  Ti162  1  0.30000000  0.50000000  0.50000000  1
  Ti  Ti163  1  0.30000000  0.50000000  0.70000000  1
  Cr  Cr164  1  0.30000000  0.50000000  0.90000000  1
  Ti  Ti165  1  0.30000000  0.70000000  0.10000000  1
  Ti  Ti166  1  0.30000000  0.70000000  0.30000000  1
  Ti  Ti167  1  0.30000000  0.70000000  0.50000000  1
  Ti  Ti168  1  0.30000000  0.70000000  0.70000000  1
  Ti  Ti169  1  0.30000000  0.70000000  0.90000000  1
  Ti  Ti170  1  0.30000000  0.90000000  0.10000000  1
  Ti  Ti171  1  0.30000000  0.90000000  0.30000000  1
  Ti  Ti172  1  0.30000000  0.90000000  0.50000000  1
  Ti  Ti173  1  0.30000000  0.90000000  0.70000000  1
  Ti  Ti174  1  0.30000000  0.90000000  0.90000000  1
  Al  Al175  1  0.50000000  0.10000000  0.10000000  1
  Cr  Cr176  1  0.50000000  0.10000000  0.30000000  1
  Al  Al177  1  0.50000000  0.10000000  0.50000000  1
  Al  Al178  1  0.50000000  0.10000000  0.70000000  1
  Ti  Ti179  1  0.50000000  0.10000000  0.90000000  1
  Ti  Ti180  1  0.50000000  0.30000000  0.10000000  1
  Ti  Ti181  1  0.50000000  0.30000000  0.30000000  1
  Al  Al182  1  0.50000000  0.30000000  0.50000000  1
  Ti  Ti183  1  0.50000000  0.30000000  0.70000000  1
  Ti  Ti184  1  0.50000000  0.30000000  0.90000000  1
  Ti  Ti185  1  0.50000000  0.50000000  0.10000000  1
  Ti  Ti186  1  0.50000000  0.50000000  0.30000000  1
  Ti  Ti187  1  0.50000000  0.50000000  0.50000000  1
  Al  Al188  1  0.50000000  0.50000000  0.70000000  1
  Cr  Cr189  1  0.50000000  0.50000000  0.90000000  1
  Ti  Ti190  1  0.50000000  0.70000000  0.10000000  1
  Ti  Ti191  1  0.50000000  0.70000000  0.30000000  1
  Ti  Ti192  1  0.50000000  0.70000000  0.50000000  1
  Al  Al193  1  0.50000000  0.70000000  0.70000000  1
  Ti  Ti194  1  0.50000000  0.70000000  0.90000000  1
  Al  Al195  1  0.50000000  0.90000000  0.10000000  1
  Ti  Ti196  1  0.50000000  0.90000000  0.30000000  1
  Ti  Ti197  1  0.50000000  0.90000000  0.50000000  1
  Ti  Ti198  1  0.50000000  0.90000000  0.70000000  1
  Al  Al199  1  0.50000000  0.90000000  0.90000000  1
  Ti  Ti200  1  0.70000000  0.10000000  0.10000000  1
  Al  Al201  1  0.70000000  0.10000000  0.30000000  1
  Al  Al202  1  0.70000000  0.10000000  0.50000000  1
  Ti  Ti203  1  0.70000000  0.10000000  0.70000000  1
  Ti  Ti204  1  0.70000000  0.10000000  0.90000000  1
  Ti  Ti205  1  0.70000000  0.30000000  0.10000000  1
  Ti  Ti206  1  0.70000000  0.30000000  0.30000000  1
  Ti  Ti207  1  0.70000000  0.30000000  0.50000000  1
  Ti  Ti208  1  0.70000000  0.30000000  0.70000000  1
  Ti  Ti209  1  0.70000000  0.30000000  0.90000000  1
  Ti  Ti210  1  0.70000000  0.50000000  0.10000000  1
  Ti  Ti211  1  0.70000000  0.50000000  0.30000000  1
  Ti  Ti212  1  0.70000000  0.50000000  0.50000000  1
  Ti  Ti213  1  0.70000000  0.50000000  0.70000000  1
  Ti  Ti214  1  0.70000000  0.50000000  0.90000000  1
  Ti  Ti215  1  0.70000000  0.70000000  0.10000000  1
  Ti  Ti216  1  0.70000000  0.70000000  0.30000000  1
  Al  Al217  1  0.70000000  0.70000000  0.50000000  1
  Ti  Ti218  1  0.70000000  0.70000000  0.70000000  1
  Ti  Ti219  1  0.70000000  0.70000000  0.90000000  1
  Ti  Ti220  1  0.70000000  0.90000000  0.10000000  1
  Ti  Ti221  1  0.70000000  0.90000000  0.30000000  1
  Ti  Ti222  1  0.70000000  0.90000000  0.50000000  1
  Ti  Ti223  1  0.70000000  0.90000000  0.70000000  1
  Ti  Ti224  1  0.70000000  0.90000000  0.90000000  1
  Ti  Ti225  1  0.90000000  0.10000000  0.10000000  1
  Ti  Ti226  1  0.90000000  0.10000000  0.30000000  1
  Ti  Ti227  1  0.90000000  0.10000000  0.50000000  1
  Ti  Ti228  1  0.90000000  0.10000000  0.70000000  1
  Ti  Ti229  1  0.90000000  0.10000000  0.90000000  1
  Ti  Ti230  1  0.90000000  0.30000000  0.10000000  1
  Ti  Ti231  1  0.90000000  0.30000000  0.30000000  1
  Ti  Ti232  1  0.90000000  0.30000000  0.50000000  1
  Ti  Ti233  1  0.90000000  0.30000000  0.70000000  1
  Ti  Ti234  1  0.90000000  0.30000000  0.90000000  1
  Al  Al235  1  0.90000000  0.50000000  0.10000000  1
  Al  Al236  1  0.90000000  0.50000000  0.30000000  1
  Ti  Ti237  1  0.90000000  0.50000000  0.50000000  1
  Ti  Ti238  1  0.90000000  0.50000000  0.70000000  1
  Ti  Ti239  1  0.90000000  0.50000000  0.90000000  1
  Ti  Ti240  1  0.90000000  0.70000000  0.10000000  1
  Ti  Ti241  1  0.90000000  0.70000000  0.30000000  1
  Cr  Cr242  1  0.90000000  0.70000000  0.50000000  1
  Ti  Ti243  1  0.90000000  0.70000000  0.70000000  1
  Ti  Ti244  1  0.90000000  0.70000000  0.90000000  1
  Ti  Ti245  1  0.90000000  0.90000000  0.10000000  1
  Ti  Ti246  1  0.90000000  0.90000000  0.30000000  1
  Al  Al247  1  0.90000000  0.90000000  0.50000000  1
  Ti  Ti248  1  0.90000000  0.90000000  0.70000000  1
  Ti  Ti249  1  0.90000000  0.90000000  0.90000000  1
