# generated using pymatgen
data_Ti94Al25Cr6
_symmetry_space_group_name_H-M   'P 1'
_cell_length_a   14.23494906
_cell_length_b   14.23494906
_cell_length_c   14.23494906
_cell_angle_alpha   90.00000000
_cell_angle_beta   90.00000000
_cell_angle_gamma   90.00000000
_symmetry_Int_Tables_number   1
_chemical_formula_structural   Ti94Al25Cr6
_chemical_formula_sum   'Ti188 Al50 Cr12'
_cell_volume   2884.48146339
_cell_formula_units_Z   2
loop_
 _symmetry_equiv_pos_site_id
 _symmetry_equiv_pos_as_xyz
  1  'x, y, z'
loop_
 _atom_site_type_symbol
 _atom_site_label
 _atom_site_symmetry_multiplicity
 _atom_site_fract_x
 _atom_site_fract_y
 _atom_site_fract_z
 _atom_site_occupancy
  Ti  Ti0  1  0.00000000  0.00000000  0.00000000  1
  Ti  Ti1  1  0.00000000  0.00000000  0.20000000  1
  Ti  Ti2  1  0.00000000  0.00000000  0.40000000  1
  Ti  Ti3  1  0.00000000  0.00000000  0.60000000  1
  Ti  Ti4  1  0.00000000  0.00000000  0.80000000  1
  Ti  Ti5  1  0.00000000  0.20000000  0.00000000  1
  Ti  Ti6  1  0.00000000  0.20000000  0.20000000  1
  Ti  Ti7  1  0.00000000  0.20000000  0.40000000  1
  Ti  Ti8  1  0.00000000  0.20000000  0.60000000  1
  Ti  Ti9  1  0.00000000  0.20000000  0.80000000  1
  Ti  Ti10  1  0.00000000  0.40000000  0.00000000  1
  Al  Al11  1  0.00000000  0.40000000  0.20000000  1
  Ti  Ti12  1  0.00000000  0.40000000  0.40000000  1
  Ti  Ti13  1  0.00000000  0.40000000  0.60000000  1
  Al  Al14  1  0.00000000  0.40000000  0.80000000  1
  Ti  Ti15  1  0.00000000  0.60000000  0.00000000  1
  Ti  Ti16  1  0.00000000  0.60000000  0.20000000  1
  Ti  Ti17  1  0.00000000  0.60000000  0.40000000  1
  Ti  Ti18  1  0.00000000  0.60000000  0.60000000  1
  Ti  Ti19  1  0.00000000  0.60000000  0.80000000  1
  Ti  Ti20  1  0.00000000  0.80000000  0.00000000  1
  Ti  Ti21  1  0.00000000  0.80000000  0.20000000  1
  Al  Al22  1  0.00000000  0.80000000  0.40000000  1
  Ti  Ti23  1  0.00000000  0.80000000  0.60000000  1
  Cr  Cr24  1  0.00000000  0.80000000  0.80000000  1
  Ti  Ti25  1  0.20000000  0.00000000  0.00000000  1
  Al  Al26  1  0.20000000  0.00000000  0.20000000  1
  Ti  Ti27  1  0.20000000  0.00000000  0.40000000  1
  Ti  Ti28  1  0.20000000  0.00000000  0.60000000  1
  Ti  Ti29  1  0.20000000  0.00000000  0.80000000  1
  Ti  Ti30  1  0.20000000  0.20000000  0.00000000  1
  Ti  Ti31  1  0.20000000  0.20000000  0.20000000  1
  Ti  Ti32  1  0.20000000  0.20000000  0.40000000  1
  Ti  Ti33  1  0.20000000  0.20000000  0.60000000  1
  Al  Al34  1  0.20000000  0.20000000  0.80000000  1
  Al  Al35  1  0.20000000  0.40000000  0.00000000  1
  Ti  Ti36  1  0.20000000  0.40000000  0.20000000  1
  Al  Al37  1  0.20000000  0.40000000  0.40000000  1
  Ti  Ti38  1  0.20000000  0.40000000  0.60000000  1
  Ti  Ti39  1  0.20000000  0.40000000  0.80000000  1
  Ti  Ti40  1  0.20000000  0.60000000  0.00000000  1
  Al  Al41  1  0.20000000  0.60000000  0.20000000  1
  Ti  Ti42  1  0.20000000  0.60000000  0.40000000  1
  Ti  Ti43  1  0.20000000  0.60000000  0.60000000  1
  Al  Al44  1  0.20000000  0.60000000  0.80000000  1
  Ti  Ti45  1  0.20000000  0.80000000  0.00000000  1
  Al  Al46  1  0.20000000  0.80000000  0.20000000  1
  Ti  Ti47  1  0.20000000  0.80000000  0.40000000  1
  Ti  Ti48  1  0.20000000  0.80000000  0.60000000  1
  Ti  Ti49  1  0.20000000  0.80000000  0.80000000  1
  Ti  Ti50  1  0.40000000  0.00000000  0.00000000  1
  Ti  Ti51  1  0.40000000  0.00000000  0.20000000  1
  Ti  Ti52  1  0.40000000  0.00000000  0.40000000  1
  Al  Al53  1  0.40000000  0.00000000  0.60000000  1
  Al  Al54  1  0.40000000  0.00000000  0.80000000  1
  Al  Al55  1  0.40000000  0.20000000  0.00000000  1
  Ti  Ti56  1  0.40000000  0.20000000  0.20000000  1
  Ti  Ti57  1  0.40000000  0.20000000  0.40000000  1
  Al  Al58  1  0.40000000  0.20000000  0.60000000  1
  Ti  Ti59  1  0.40000000  0.20000000  0.80000000  1
  Ti  Ti60  1  0.40000000  0.40000000  0.00000000  1
  Cr  Cr61  1  0.40000000  0.40000000  0.20000000  1
  Ti  Ti62  1  0.40000000  0.40000000  0.40000000  1
  Ti  Ti63  1  0.40000000  0.40000000  0.60000000  1
  Ti  Ti64  1  0.40000000  0.40000000  0.80000000  1
  Al  Al65  1  0.40000000  0.60000000  0.00000000  1
  Al  Al66  1  0.40000000  0.60000000  0.20000000  1
  Ti  Ti67  1  0.40000000  0.60000000  0.40000000  1
  Ti  Ti68  1  0.40000000  0.60000000  0.60000000  1
  Ti  Ti69  1  0.40000000  0.60000000  0.80000000  1
  Al  Al70  1  0.40000000  0.80000000  0.00000000  1
  Ti  Ti71  1  0.40000000  0.80000000  0.20000000  1
  Ti  Ti72  1  0.40000000  0.80000000  0.40000000  1
  Ti  Ti73  1  0.40000000  0.80000000  0.60000000  1
  Ti  Ti74  1  0.40000000  0.80000000  0.80000000  1
  Ti  Ti75  1  0.60000000  0.00000000  0.00000000  1
  Cr  Cr76  1  0.60000000  0.00000000  0.20000000  1
  Al  Al77  1  0.60000000  0.00000000  0.40000000  1
  Ti  Ti78  1  0.60000000  0.00000000  0.60000000  1
  Ti  Ti79  1  0.60000000  0.00000000  0.80000000  1
  Ti  Ti80  1  0.60000000  0.20000000  0.00000000  1
  Ti  Ti81  1  0.60000000  0.20000000  0.20000000  1
  Ti  Ti82  1  0.60000000  0.20000000  0.40000000  1
  Ti  Ti83  1  0.60000000  0.20000000  0.60000000  1
  Ti  Ti84  1  0.60000000  0.20000000  0.80000000  1
  Ti  Ti85  1  0.60000000  0.40000000  0.00000000  1
  Ti  Ti86  1  0.60000000  0.40000000  0.20000000  1
  Ti  Ti87  1  0.60000000  0.40000000  0.40000000  1
  Ti  Ti88  1  0.60000000  0.40000000  0.60000000  1
  Ti  Ti89  1  0.60000000  0.40000000  0.80000000  1
  Al  Al90  1  0.60000000  0.60000000  0.00000000  1
  Ti  Ti91  1  0.60000000  0.60000000  0.20000000  1
  Ti  Ti92  1  0.60000000  0.60000000  0.40000000  1
  Ti  Ti93  1  0.60000000  0.60000000  0.60000000  1
  Ti  Ti94  1  0.60000000  0.60000000  0.80000000  1
  Ti  Ti95  1  0.60000000  0.80000000  0.00000000  1
  Cr  Cr96  1  0.60000000  0.80000000  0.20000000  1
  Al  Al97  1  0.60000000  0.80000000  0.40000000  1
  Al  Al98  1  0.60000000  0.80000000  0.60000000  1
  Ti  Ti99  1  0.60000000  0.80000000  0.80000000  1
  Ti  Ti100  1  0.80000000  0.00000000  0.00000000  1
  Ti  Ti101  1  0.80000000  0.00000000  0.20000000  1
  Cr  Cr102  1  0.80000000  0.00000000  0.40000000  1
  Ti  Ti103  1  0.80000000  0.00000000  0.60000000  1
  Cr  Cr104  1  0.80000000  0.00000000  0.80000000  1
  Cr  Cr105  1  0.80000000  0.20000000  0.00000000  1
  Ti  Ti106  1  0.80000000  0.20000000  0.20000000  1
  Al  Al107  1  0.80000000  0.20000000  0.40000000  1
  Ti  Ti108  1  0.80000000  0.20000000  0.60000000  1
  Ti  Ti109  1  0.80000000  0.20000000  0.80000000  1
  Ti  Ti110  1  0.80000000  0.40000000  0.00000000  1
  Ti  Ti111  1  0.80000000  0.40000000  0.20000000  1
  Ti  Ti112  1  0.80000000  0.40000000  0.40000000  1
  Al  Al113  1  0.80000000  0.40000000  0.60000000  1
  Ti  Ti114  1  0.80000000  0.40000000  0.80000000  1
  Cr  Cr115  1  0.80000000  0.60000000  0.00000000  1
  Ti  Ti116  1  0.80000000  0.60000000  0.20000000  1
  Ti  Ti117  1  0.80000000  0.60000000  0.40000000  1
  Ti  Ti118  1  0.80000000  0.60000000  0.60000000  1
  Ti  Ti119  1  0.80000000  0.60000000  0.80000000  1
  Al  Al120  1  0.80000000  0.80000000  0.00000000  1
  Ti  Ti121  1  0.80000000  0.80000000  0.20000000  1
  Ti  Ti122  1  0.80000000  0.80000000  0.40000000  1
  Ti  Ti123  1  0.80000000  0.80000000  0.60000000  1
  Ti  Ti124  1  0.80000000  0.80000000  0.80000000  1
  Ti  Ti125  1  0.10000000  0.10000000  0.10000000  1
  Ti  Ti126  1  0.10000000  0.10000000  0.30000000  1
  Cr  Cr127  1  0.10000000  0.10000000  0.50000000  1
  Al  Al128  1  0.10000000  0.10000000  0.70000000  1
  Ti  Ti129  1  0.10000000  0.10000000  0.90000000  1
  Al  Al130  1  0.10000000  0.30000000  0.10000000  1
  Ti  Ti131  1  0.10000000  0.30000000  0.30000000  1
  Al  Al132  1  0.10000000  0.30000000  0.50000000  1
  Ti  Ti133  1  0.10000000  0.30000000  0.70000000  1
  Al  Al134  1  0.10000000  0.30000000  0.90000000  1
  Ti  Ti135  1  0.10000000  0.50000000  0.10000000  1
  Ti  Ti136  1  0.10000000  0.50000000  0.30000000  1
  Ti  Ti137  1  0.10000000  0.50000000  0.50000000  1
  Ti  Ti138  1  0.10000000  0.50000000  0.70000000  1
  Ti  Ti139  1  0.10000000  0.50000000  0.90000000  1
  Al  Al140  1  0.10000000  0.70000000  0.10000000  1
  Al  Al141  1  0.10000000  0.70000000  0.30000000  1
  Ti  Ti142  1  0.10000000  0.70000000  0.50000000  1
  Al  Al143  1  0.10000000  0.70000000  0.70000000  1
  Ti  Ti144  1  0.10000000  0.70000000  0.90000000  1
  Ti  Ti145  1  0.10000000  0.90000000  0.10000000  1
  Ti  Ti146  1  0.10000000  0.90000000  0.30000000  1
  Ti  Ti147  1  0.10000000  0.90000000  0.50000000  1
  Ti  Ti148  1  0.10000000  0.90000000  0.70000000  1
  Ti  Ti149  1  0.10000000  0.90000000  0.90000000  1
  Ti  Ti150  1  0.30000000  0.10000000  0.10000000  1
  Ti  Ti151  1  0.30000000  0.10000000  0.30000000  1
  Ti  Ti152  1  0.30000000  0.10000000  0.50000000  1
  Ti  Ti153  1  0.30000000  0.10000000  0.70000000  1
  Ti  Ti154  1  0.30000000  0.10000000  0.90000000  1
  Al  Al155  1  0.30000000  0.30000000  0.10000000  1
  Ti  Ti156  1  0.30000000  0.30000000  0.30000000  1
  Al  Al157  1  0.30000000  0.30000000  0.50000000  1
  Ti  Ti158  1  0.30000000  0.30000000  0.70000000  1
  Ti  Ti159  1  0.30000000  0.30000000  0.90000000  1
  Ti  Ti160  1  0.30000000  0.50000000  0.10000000  1
  Ti  Ti161  1  0.30000000  0.50000000  0.30000000  1
  Ti  Ti162  1  0.30000000  0.50000000  0.50000000  1
  Ti  Ti163  1  0.30000000  0.50000000  0.70000000  1
  Al  Al164  1  0.30000000  0.50000000  0.90000000  1
  Ti  Ti165  1  0.30000000  0.70000000  0.10000000  1
  Al  Al166  1  0.30000000  0.70000000  0.30000000  1
  Ti  Ti167  1  0.30000000  0.70000000  0.50000000  1
  Ti  Ti168  1  0.30000000  0.70000000  0.70000000  1
  Ti  Ti169  1  0.30000000  0.70000000  0.90000000  1
  Ti  Ti170  1  0.30000000  0.90000000  0.10000000  1
  Al  Al171  1  0.30000000  0.90000000  0.30000000  1
  Ti  Ti172  1  0.30000000  0.90000000  0.50000000  1
  Cr  Cr173  1  0.30000000  0.90000000  0.70000000  1
  Ti  Ti174  1  0.30000000  0.90000000  0.90000000  1
  Ti  Ti175  1  0.50000000  0.10000000  0.10000000  1
  Ti  Ti176  1  0.50000000  0.10000000  0.30000000  1
  Ti  Ti177  1  0.50000000  0.10000000  0.50000000  1
  Al  Al178  1  0.50000000  0.10000000  0.70000000  1
  Ti  Ti179  1  0.50000000  0.10000000  0.90000000  1
  Ti  Ti180  1  0.50000000  0.30000000  0.10000000  1
  Ti  Ti181  1  0.50000000  0.30000000  0.30000000  1
  Ti  Ti182  1  0.50000000  0.30000000  0.50000000  1
  Ti  Ti183  1  0.50000000  0.30000000  0.70000000  1
  Ti  Ti184  1  0.50000000  0.30000000  0.90000000  1
  Al  Al185  1  0.50000000  0.50000000  0.10000000  1
  Ti  Ti186  1  0.50000000  0.50000000  0.30000000  1
  Cr  Cr187  1  0.50000000  0.50000000  0.50000000  1
  Ti  Ti188  1  0.50000000  0.50000000  0.70000000  1
  Ti  Ti189  1  0.50000000  0.50000000  0.90000000  1
  Ti  Ti190  1  0.50000000  0.70000000  0.10000000  1
  Ti  Ti191  1  0.50000000  0.70000000  0.30000000  1
  Ti  Ti192  1  0.50000000  0.70000000  0.50000000  1
  Al  Al193  1  0.50000000  0.70000000  0.70000000  1
  Al  Al194  1  0.50000000  0.70000000  0.90000000  1
  Ti  Ti195  1  0.50000000  0.90000000  0.10000000  1
  Ti  Ti196  1  0.50000000  0.90000000  0.30000000  1
  Ti  Ti197  1  0.50000000  0.90000000  0.50000000  1
  Ti  Ti198  1  0.50000000  0.90000000  0.70000000  1
  Ti  Ti199  1  0.50000000  0.90000000  0.90000000  1
  Ti  Ti200  1  0.70000000  0.10000000  0.10000000  1
  Ti  Ti201  1  0.70000000  0.10000000  0.30000000  1
  Al  Al202  1  0.70000000  0.10000000  0.50000000  1
  Ti  Ti203  1  0.70000000  0.10000000  0.70000000  1
  Al  Al204  1  0.70000000  0.10000000  0.90000000  1
  Ti  Ti205  1  0.70000000  0.30000000  0.10000000  1
  Ti  Ti206  1  0.70000000  0.30000000  0.30000000  1
  Ti  Ti207  1  0.70000000  0.30000000  0.50000000  1
  Ti  Ti208  1  0.70000000  0.30000000  0.70000000  1
  Ti  Ti209  1  0.70000000  0.30000000  0.90000000  1
  Ti  Ti210  1  0.70000000  0.50000000  0.10000000  1
  Ti  Ti211  1  0.70000000  0.50000000  0.30000000  1
  Ti  Ti212  1  0.70000000  0.50000000  0.50000000  1
  Ti  Ti213  1  0.70000000  0.50000000  0.70000000  1
  Ti  Ti214  1  0.70000000  0.50000000  0.90000000  1
  Ti  Ti215  1  0.70000000  0.70000000  0.10000000  1
  Ti  Ti216  1  0.70000000  0.70000000  0.30000000  1
  Ti  Ti217  1  0.70000000  0.70000000  0.50000000  1
  Ti  Ti218  1  0.70000000  0.70000000  0.70000000  1
  Ti  Ti219  1  0.70000000  0.70000000  0.90000000  1
  Al  Al220  1  0.70000000  0.90000000  0.10000000  1
  Ti  Ti221  1  0.70000000  0.90000000  0.30000000  1
  Ti  Ti222  1  0.70000000  0.90000000  0.50000000  1
  Ti  Ti223  1  0.70000000  0.90000000  0.70000000  1
  Ti  Ti224  1  0.70000000  0.90000000  0.90000000  1
  Ti  Ti225  1  0.90000000  0.10000000  0.10000000  1
  Ti  Ti226  1  0.90000000  0.10000000  0.30000000  1
  Ti  Ti227  1  0.90000000  0.10000000  0.50000000  1
  Cr  Cr228  1  0.90000000  0.10000000  0.70000000  1
  Ti  Ti229  1  0.90000000  0.10000000  0.90000000  1
  Ti  Ti230  1  0.90000000  0.30000000  0.10000000  1
  Ti  Ti231  1  0.90000000  0.30000000  0.30000000  1
  Ti  Ti232  1  0.90000000  0.30000000  0.50000000  1
  Ti  Ti233  1  0.90000000  0.30000000  0.70000000  1
  Al  Al234  1  0.90000000  0.30000000  0.90000000  1
  Al  Al235  1  0.90000000  0.50000000  0.10000000  1
  Al  Al236  1  0.90000000  0.50000000  0.30000000  1
  Ti  Ti237  1  0.90000000  0.50000000  0.50000000  1
  Ti  Ti238  1  0.90000000  0.50000000  0.70000000  1
  Al  Al239  1  0.90000000  0.50000000  0.90000000  1
  Al  Al240  1  0.90000000  0.70000000  0.10000000  1
  Ti  Ti241  1  0.90000000  0.70000000  0.30000000  1
  Ti  Ti242  1  0.90000000  0.70000000  0.50000000  1
  Ti  Ti243  1  0.90000000  0.70000000  0.70000000  1
  Al  Al244  1  0.90000000  0.70000000  0.90000000  1
  Ti  Ti245  1  0.90000000  0.90000000  0.10000000  1
  Al  Al246  1  0.90000000  0.90000000  0.30000000  1
  Ti  Ti247  1  0.90000000  0.90000000  0.50000000  1
  Ti  Ti248  1  0.90000000  0.90000000  0.70000000  1
  Ti  Ti249  1  0.90000000  0.90000000  0.90000000  1
