# generated using pymatgen
data_Ti48Al13Cr3
_symmetry_space_group_name_H-M   'P 1'
_cell_length_a   11.38795925
_cell_length_b   11.38795925
_cell_length_c   11.38795925
_cell_angle_alpha   90.00000000
_cell_angle_beta   90.00000000
_cell_angle_gamma   90.00000000
_symmetry_Int_Tables_number   1
_chemical_formula_structural   Ti48Al13Cr3
_chemical_formula_sum   'Ti96 Al26 Cr6'
_cell_volume   1476.85450925
_cell_formula_units_Z   2
loop_
 _symmetry_equiv_pos_site_id
 _symmetry_equiv_pos_as_xyz
  1  'x, y, z'
loop_
 _atom_site_type_symbol
 _atom_site_label
 _atom_site_symmetry_multiplicity
 _atom_site_fract_x
 _atom_site_fract_y
 _atom_site_fract_z
 _atom_site_occupancy
  Ti  Ti0  1  0.00000000  0.00000000  0.00000000  1
  Ti  Ti1  1  0.00000000  0.00000000  0.25000000  1
  Ti  Ti2  1  0.00000000  0.00000000  0.50000000  1
  Ti  Ti3  1  0.00000000  0.00000000  0.75000000  1
  Ti  Ti4  1  0.00000000  0.25000000  0.00000000  1
  Ti  Ti5  1  0.00000000  0.25000000  0.25000000  1
  Ti  Ti6  1  0.00000000  0.25000000  0.50000000  1
  Ti  Ti7  1  0.00000000  0.25000000  0.75000000  1
  Ti  Ti8  1  0.00000000  0.50000000  0.00000000  1
  Cr  Cr9  1  0.00000000  0.50000000  0.25000000  1
  Al  Al10  1  0.00000000  0.50000000  0.50000000  1
  Ti  Ti11  1  0.00000000  0.50000000  0.75000000  1
  Al  Al12  1  0.00000000  0.75000000  0.00000000  1
  Ti  Ti13  1  0.00000000  0.75000000  0.25000000  1
  Al  Al14  1  0.00000000  0.75000000  0.50000000  1
  Ti  Ti15  1  0.00000000  0.75000000  0.75000000  1
  Al  Al16  1  0.25000000  0.00000000  0.00000000  1
  Ti  Ti17  1  0.25000000  0.00000000  0.25000000  1
  Ti  Ti18  1  0.25000000  0.00000000  0.50000000  1
  Al  Al19  1  0.25000000  0.00000000  0.75000000  1
  Al  Al20  1  0.25000000  0.25000000  0.00000000  1
  Cr  Cr21  1  0.25000000  0.25000000  0.25000000  1
  Ti  Ti22  1  0.25000000  0.25000000  0.50000000  1
  Ti  Ti23  1  0.25000000  0.25000000  0.75000000  1
  Ti  Ti24  1  0.25000000  0.50000000  0.00000000  1
  Ti  Ti25  1  0.25000000  0.50000000  0.25000000  1
  Ti  Ti26  1  0.25000000  0.50000000  0.50000000  1
  Ti  Ti27  1  0.25000000  0.50000000  0.75000000  1
  Ti  Ti28  1  0.25000000  0.75000000  0.00000000  1
  Al  Al29  1  0.25000000  0.75000000  0.25000000  1
  Ti  Ti30  1  0.25000000  0.75000000  0.50000000  1
  Ti  Ti31  1  0.25000000  0.75000000  0.75000000  1
  Al  Al32  1  0.50000000  0.00000000  0.00000000  1
  Ti  Ti33  1  0.50000000  0.00000000  0.25000000  1
  Ti  Ti34  1  0.50000000  0.00000000  0.50000000  1
  Ti  Ti35  1  0.50000000  0.00000000  0.75000000  1
  Ti  Ti36  1  0.50000000  0.25000000  0.00000000  1
  Ti  Ti37  1  0.50000000  0.25000000  0.25000000  1
  Ti  Ti38  1  0.50000000  0.25000000  0.50000000  1
  Cr  Cr39  1  0.50000000  0.25000000  0.75000000  1
  Ti  Ti40  1  0.50000000  0.50000000  0.00000000  1
  Al  Al41  1  0.50000000  0.50000000  0.25000000  1
  Al  Al42  1  0.50000000  0.50000000  0.50000000  1
  Ti  Ti43  1  0.50000000  0.50000000  0.75000000  1
  Ti  Ti44  1  0.50000000  0.75000000  0.00000000  1
  Ti  Ti45  1  0.50000000  0.75000000  0.25000000  1
  Ti  Ti46  1  0.50000000  0.75000000  0.50000000  1
  Ti  Ti47  1  0.50000000  0.75000000  0.75000000  1
  Al  Al48  1  0.75000000  0.00000000  0.00000000  1
  Ti  Ti49  1  0.75000000  0.00000000  0.25000000  1
  Ti  Ti50  1  0.75000000  0.00000000  0.50000000  1
  Al  Al51  1  0.75000000  0.00000000  0.75000000  1
  Ti  Ti52  1  0.75000000  0.25000000  0.00000000  1
  Ti  Ti53  1  0.75000000  0.25000000  0.25000000  1
  Ti  Ti54  1  0.75000000  0.25000000  0.50000000  1
  Al  Al55  1  0.75000000  0.25000000  0.75000000  1
  Ti  Ti56  1  0.75000000  0.50000000  0.00000000  1
  Ti  Ti57  1  0.75000000  0.50000000  0.25000000  1
  Ti  Ti58  1  0.75000000  0.50000000  0.50000000  1
  Ti  Ti59  1  0.75000000  0.50000000  0.75000000  1
  Al  Al60  1  0.75000000  0.75000000  0.00000000  1
  Cr  Cr61  1  0.75000000  0.75000000  0.25000000  1
  Ti  Ti62  1  0.75000000  0.75000000  0.50000000  1
  Ti  Ti63  1  0.75000000  0.75000000  0.75000000  1
  Ti  Ti64  1  0.12500000  0.12500000  0.12500000  1
  Cr  Cr65  1  0.12500000  0.12500000  0.37500000  1
  Al  Al66  1  0.12500000  0.12500000  0.62500000  1
  Ti  Ti67  1  0.12500000  0.12500000  0.87500000  1
  Ti  Ti68  1  0.12500000  0.37500000  0.12500000  1
  Ti  Ti69  1  0.12500000  0.37500000  0.37500000  1
  Ti  Ti70  1  0.12500000  0.37500000  0.62500000  1
  Ti  Ti71  1  0.12500000  0.37500000  0.87500000  1
  Al  Al72  1  0.12500000  0.62500000  0.12500000  1
  Al  Al73  1  0.12500000  0.62500000  0.37500000  1
  Ti  Ti74  1  0.12500000  0.62500000  0.62500000  1
  Ti  Ti75  1  0.12500000  0.62500000  0.87500000  1
  Al  Al76  1  0.12500000  0.87500000  0.12500000  1
  Ti  Ti77  1  0.12500000  0.87500000  0.37500000  1
  Ti  Ti78  1  0.12500000  0.87500000  0.62500000  1
  Ti  Ti79  1  0.12500000  0.87500000  0.87500000  1
  Ti  Ti80  1  0.37500000  0.12500000  0.12500000  1
  Ti  Ti81  1  0.37500000  0.12500000  0.37500000  1
  Ti  Ti82  1  0.37500000  0.12500000  0.62500000  1
  Al  Al83  1  0.37500000  0.12500000  0.87500000  1
  Ti  Ti84  1  0.37500000  0.37500000  0.12500000  1
  Ti  Ti85  1  0.37500000  0.37500000  0.37500000  1
  Ti  Ti86  1  0.37500000  0.37500000  0.62500000  1
  Ti  Ti87  1  0.37500000  0.37500000  0.87500000  1
  Ti  Ti88  1  0.37500000  0.62500000  0.12500000  1
  Ti  Ti89  1  0.37500000  0.62500000  0.37500000  1
  Ti  Ti90  1  0.37500000  0.62500000  0.62500000  1
  Ti  Ti91  1  0.37500000  0.62500000  0.87500000  1
  Ti  Ti92  1  0.37500000  0.87500000  0.12500000  1
  Ti  Ti93  1  0.37500000  0.87500000  0.37500000  1
  Ti  Ti94  1  0.37500000  0.87500000  0.62500000  1
  Ti  Ti95  1  0.37500000  0.87500000  0.87500000  1
  Ti  Ti96  1  0.62500000  0.12500000  0.12500000  1
  Ti  Ti97  1  0.62500000  0.12500000  0.37500000  1
  Ti  Ti98  1  0.62500000  0.12500000  0.62500000  1
  Ti  Ti99  1  0.62500000  0.12500000  0.87500000  1
  Al  Al100  1  0.62500000  0.37500000  0.12500000  1
  Ti  Ti101  1  0.62500000  0.37500000  0.37500000  1
  Ti  Ti102  1  0.62500000  0.37500000  0.62500000  1
  Ti  Ti103  1  0.62500000  0.37500000  0.87500000  1
  Ti  Ti104  1  0.62500000  0.62500000  0.12500000  1
  Ti  Ti105  1  0.62500000  0.62500000  0.37500000  1
  Ti  Ti106  1  0.62500000  0.62500000  0.62500000  1
  Ti  Ti107  1  0.62500000  0.62500000  0.87500000  1
  Ti  Ti108  1  0.62500000  0.87500000  0.12500000  1
  Ti  Ti109  1  0.62500000  0.87500000  0.37500000  1
  Al  Al110  1  0.62500000  0.87500000  0.62500000  1
  Ti  Ti111  1  0.62500000  0.87500000  0.87500000  1
  Ti  Ti112  1  0.87500000  0.12500000  0.12500000  1
  Ti  Ti113  1  0.87500000  0.12500000  0.37500000  1
  Al  Al114  1  0.87500000  0.12500000  0.62500000  1
  Ti  Ti115  1  0.87500000  0.12500000  0.87500000  1
  Al  Al116  1  0.87500000  0.37500000  0.12500000  1
  Ti  Ti117  1  0.87500000  0.37500000  0.37500000  1
  Cr  Cr118  1  0.87500000  0.37500000  0.62500000  1
  Al  Al119  1  0.87500000  0.37500000  0.87500000  1
  Ti  Ti120  1  0.87500000  0.62500000  0.12500000  1
  Al  Al121  1  0.87500000  0.62500000  0.37500000  1
  Ti  Ti122  1  0.87500000  0.62500000  0.62500000  1
  Ti  Ti123  1  0.87500000  0.62500000  0.87500000  1
  Ti  Ti124  1  0.87500000  0.87500000  0.12500000  1
  Ti  Ti125  1  0.87500000  0.87500000  0.37500000  1
  Al  Al126  1  0.87500000  0.87500000  0.62500000  1
  Ti  Ti127  1  0.87500000  0.87500000  0.87500000  1
