# generated using pymatgen
data_Ti41Al11Cr2
_symmetry_space_group_name_H-M   'P 1'
_cell_length_a   8.54096944
_cell_length_b   8.54096944
_cell_length_c   8.54096944
_cell_angle_alpha   90.00000000
_cell_angle_beta   90.00000000
_cell_angle_gamma   90.00000000
_symmetry_Int_Tables_number   1
_chemical_formula_structural   Ti41Al11Cr2
_chemical_formula_sum   'Ti41 Al11 Cr2'
_cell_volume   623.04799609
_cell_formula_units_Z   1
loop_
 _symmetry_equiv_pos_site_id
 _symmetry_equiv_pos_as_xyz
  1  'x, y, z'
loop_
 _atom_site_type_symbol
 _atom_site_label
 _atom_site_symmetry_multiplicity
 _atom_site_fract_x
 _atom_site_fract_y
 _atom_site_fract_z
 _atom_site_occupancy
  Ti  Ti0  1  0.00000000  0.00000000  0.00000000  1
  Ti  Ti1  1  0.00000000  0.00000000  0.33333333  1
  Ti  Ti2  1  0.00000000  0.00000000  0.66666667  1
  Al  Al3  1  0.00000000  0.33333333  0.00000000  1
  Ti  Ti4  1  0.00000000  0.33333333  0.33333333  1
  Ti  Ti5  1  0.00000000  0.33333333  0.66666667  1
  Ti  Ti6  1  0.00000000  0.66666667  0.00000000  1
  Al  Al7  1  0.00000000  0.66666667  0.33333333  1
  Ti  Ti8  1  0.00000000  0.66666667  0.66666667  1
  Ti  Ti9  1  0.33333333  0.00000000  0.00000000  1
  Ti  Ti10  1  0.33333333  0.00000000  0.33333333  1
  Ti  Ti11  1  0.33333333  0.00000000  0.66666667  1
  Ti  Ti12  1  0.33333333  0.33333333  0.00000000  1
  Ti  Ti13  1  0.33333333  0.33333333  0.33333333  1
  Ti  Ti14  1  0.33333333  0.33333333  0.66666667  1
  Ti  Ti15  1  0.33333333  0.66666667  0.00000000  1
  Al  Al16  1  0.33333333  0.66666667  0.33333333  1
  Al  Al17  1  0.33333333  0.66666667  0.66666667  1
  Ti  Ti18  1  0.66666667  0.00000000  0.00000000  1
  Ti  Ti19  1  0.66666667  0.00000000  0.33333333  1
  Ti  Ti20  1  0.66666667  0.00000000  0.66666667  1
  Ti  Ti21  1  0.66666667  0.33333333  0.00000000  1
  Ti  Ti22  1  0.66666667  0.33333333  0.33333333  1
  Al  Al23  1  0.66666667  0.33333333  0.66666667  1
  Ti  Ti24  1  0.66666667  0.66666667  0.00000000  1
  Al  Al25  1  0.66666667  0.66666667  0.33333333  1
  Ti  Ti26  1  0.66666667  0.66666667  0.66666667  1
  Ti  Ti27  1  0.16666667  0.16666667  0.16666667  1
  Ti  Ti28  1  0.16666667  0.16666667  0.50000000  1
  Ti  Ti29  1  0.16666667  0.16666667  0.83333333  1
  Cr  Cr30  1  0.16666667  0.50000000  0.16666667  1
  Ti  Ti31  1  0.16666667  0.50000000  0.50000000  1
  Ti  Ti32  1  0.16666667  0.50000000  0.83333333  1
  Al  Al33  1  0.16666667  0.83333333  0.16666667  1
  Ti  Ti34  1  0.16666667  0.83333333  0.50000000  1
  Ti  Ti35  1  0.16666667  0.83333333  0.83333333  1
  Al  Al36  1  0.50000000  0.16666667  0.16666667  1
  Al  Al37  1  0.50000000  0.16666667  0.50000000  1
  Al  Al38  1  0.50000000  0.16666667  0.83333333  1
  Ti  Ti39  1  0.50000000  0.50000000  0.16666667  1
  Ti  Ti40  1  0.50000000  0.50000000  0.50000000  1
  Ti  Ti41  1  0.50000000  0.50000000  0.83333333  1
  Al  Al42  1  0.50000000  0.83333333  0.16666667  1
  Ti  Ti43  1  0.50000000  0.83333333  0.50000000  1
  Ti  Ti44  1  0.50000000  0.83333333  0.83333333  1
  Cr  Cr45  1  0.83333333  0.16666667  0.16666667  1
  Ti  Ti46  1  0.83333333  0.16666667  0.50000000  1
  Ti  Ti47  1  0.83333333  0.16666667  0.83333333  1
  Ti  Ti48  1  0.83333333  0.50000000  0.16666667  1
  Ti  Ti49  1  0.83333333  0.50000000  0.50000000  1
  Ti  Ti50  1  0.83333333  0.50000000  0.83333333  1
  Ti  Ti51  1  0.83333333  0.83333333  0.16666667  1
  Ti  Ti52  1  0.83333333  0.83333333  0.50000000  1
  Ti  Ti53  1  0.83333333  0.83333333  0.83333333  1
