# generated using pymatgen
data_Ti325Al86Cr21
_symmetry_space_group_name_H-M   'P 1'
_cell_length_a   17.08193888
_cell_length_b   17.08193888
_cell_length_c   17.08193888
_cell_angle_alpha   90.00000000
_cell_angle_beta   90.00000000
_cell_angle_gamma   90.00000000
_symmetry_Int_Tables_number   1
_chemical_formula_structural   Ti325Al86Cr21
_chemical_formula_sum   'Ti325 Al86 Cr21'
_cell_volume   4984.38396873
_cell_formula_units_Z   1
loop_
 _symmetry_equiv_pos_site_id
 _symmetry_equiv_pos_as_xyz
  1  'x, y, z'
loop_
 _atom_site_type_symbol
 _atom_site_label
 _atom_site_symmetry_multiplicity
 _atom_site_fract_x
 _atom_site_fract_y
 _atom_site_fract_z
 _atom_site_occupancy
  Ti  Ti0  1  0.00000000  0.00000000  0.00000000  1
  Al  Al1  1  0.00000000  0.00000000  0.16666667  1
  Ti  Ti2  1  0.00000000  0.00000000  0.33333333  1
  Ti  Ti3  1  0.00000000  0.00000000  0.50000000  1
  Ti  Ti4  1  0.00000000  0.00000000  0.66666667  1
  Al  Al5  1  0.00000000  0.00000000  0.83333333  1
  Ti  Ti6  1  0.00000000  0.16666667  0.00000000  1
  Ti  Ti7  1  0.00000000  0.16666667  0.16666667  1
  Ti  Ti8  1  0.00000000  0.16666667  0.33333333  1
  Ti  Ti9  1  0.00000000  0.16666667  0.50000000  1
  Al  Al10  1  0.00000000  0.16666667  0.66666667  1
  Ti  Ti11  1  0.00000000  0.16666667  0.83333333  1
  Ti  Ti12  1  0.00000000  0.33333333  0.00000000  1
  Al  Al13  1  0.00000000  0.33333333  0.16666667  1
  Ti  Ti14  1  0.00000000  0.33333333  0.33333333  1
  Ti  Ti15  1  0.00000000  0.33333333  0.50000000  1
  Ti  Ti16  1  0.00000000  0.33333333  0.66666667  1
  Al  Al17  1  0.00000000  0.33333333  0.83333333  1
  Ti  Ti18  1  0.00000000  0.50000000  0.00000000  1
  Ti  Ti19  1  0.00000000  0.50000000  0.16666667  1
  Ti  Ti20  1  0.00000000  0.50000000  0.33333333  1
  Al  Al21  1  0.00000000  0.50000000  0.50000000  1
  Al  Al22  1  0.00000000  0.50000000  0.66666667  1
  Ti  Ti23  1  0.00000000  0.50000000  0.83333333  1
  Al  Al24  1  0.00000000  0.66666667  0.00000000  1
  Ti  Ti25  1  0.00000000  0.66666667  0.16666667  1
  Ti  Ti26  1  0.00000000  0.66666667  0.33333333  1
  Ti  Ti27  1  0.00000000  0.66666667  0.50000000  1
  Al  Al28  1  0.00000000  0.66666667  0.66666667  1
  Al  Al29  1  0.00000000  0.66666667  0.83333333  1
  Ti  Ti30  1  0.00000000  0.83333333  0.00000000  1
  Al  Al31  1  0.00000000  0.83333333  0.16666667  1
  Ti  Ti32  1  0.00000000  0.83333333  0.33333333  1
  Ti  Ti33  1  0.00000000  0.83333333  0.50000000  1
  Ti  Ti34  1  0.00000000  0.83333333  0.66666667  1
  Ti  Ti35  1  0.00000000  0.83333333  0.83333333  1
  Al  Al36  1  0.16666667  0.00000000  0.00000000  1
  Ti  Ti37  1  0.16666667  0.00000000  0.16666667  1
  Ti  Ti38  1  0.16666667  0.00000000  0.33333333  1
  Al  Al39  1  0.16666667  0.00000000  0.50000000  1
  Ti  Ti40  1  0.16666667  0.00000000  0.66666667  1
  Ti  Ti41  1  0.16666667  0.00000000  0.83333333  1
  Ti  Ti42  1  0.16666667  0.16666667  0.00000000  1
  Al  Al43  1  0.16666667  0.16666667  0.16666667  1
  Ti  Ti44  1  0.16666667  0.16666667  0.33333333  1
  Ti  Ti45  1  0.16666667  0.16666667  0.50000000  1
  Ti  Ti46  1  0.16666667  0.16666667  0.66666667  1
  Al  Al47  1  0.16666667  0.16666667  0.83333333  1
  Ti  Ti48  1  0.16666667  0.33333333  0.00000000  1
  Ti  Ti49  1  0.16666667  0.33333333  0.16666667  1
  Ti  Ti50  1  0.16666667  0.33333333  0.33333333  1
  Ti  Ti51  1  0.16666667  0.33333333  0.50000000  1
  Ti  Ti52  1  0.16666667  0.33333333  0.66666667  1
  Ti  Ti53  1  0.16666667  0.33333333  0.83333333  1
  Al  Al54  1  0.16666667  0.50000000  0.00000000  1
  Ti  Ti55  1  0.16666667  0.50000000  0.16666667  1
  Ti  Ti56  1  0.16666667  0.50000000  0.33333333  1
  Ti  Ti57  1  0.16666667  0.50000000  0.50000000  1
  Al  Al58  1  0.16666667  0.50000000  0.66666667  1
  Cr  Cr59  1  0.16666667  0.50000000  0.83333333  1
  Cr  Cr60  1  0.16666667  0.66666667  0.00000000  1
  Ti  Ti61  1  0.16666667  0.66666667  0.16666667  1
  Ti  Ti62  1  0.16666667  0.66666667  0.33333333  1
  Ti  Ti63  1  0.16666667  0.66666667  0.50000000  1
  Ti  Ti64  1  0.16666667  0.66666667  0.66666667  1
  Ti  Ti65  1  0.16666667  0.66666667  0.83333333  1
  Ti  Ti66  1  0.16666667  0.83333333  0.00000000  1
  Ti  Ti67  1  0.16666667  0.83333333  0.16666667  1
  Ti  Ti68  1  0.16666667  0.83333333  0.33333333  1
  Al  Al69  1  0.16666667  0.83333333  0.50000000  1
  Al  Al70  1  0.16666667  0.83333333  0.66666667  1
  Ti  Ti71  1  0.16666667  0.83333333  0.83333333  1
  Ti  Ti72  1  0.33333333  0.00000000  0.00000000  1
  Ti  Ti73  1  0.33333333  0.00000000  0.16666667  1
  Cr  Cr74  1  0.33333333  0.00000000  0.33333333  1
  Al  Al75  1  0.33333333  0.00000000  0.50000000  1
  Ti  Ti76  1  0.33333333  0.00000000  0.66666667  1
  Cr  Cr77  1  0.33333333  0.00000000  0.83333333  1
  Ti  Ti78  1  0.33333333  0.16666667  0.00000000  1
  Ti  Ti79  1  0.33333333  0.16666667  0.16666667  1
  Ti  Ti80  1  0.33333333  0.16666667  0.33333333  1
  Ti  Ti81  1  0.33333333  0.16666667  0.50000000  1
  Ti  Ti82  1  0.33333333  0.16666667  0.66666667  1
  Ti  Ti83  1  0.33333333  0.16666667  0.83333333  1
  Al  Al84  1  0.33333333  0.33333333  0.00000000  1
  Al  Al85  1  0.33333333  0.33333333  0.16666667  1
  Ti  Ti86  1  0.33333333  0.33333333  0.33333333  1
  Al  Al87  1  0.33333333  0.33333333  0.50000000  1
  Al  Al88  1  0.33333333  0.33333333  0.66666667  1
  Ti  Ti89  1  0.33333333  0.33333333  0.83333333  1
  Ti  Ti90  1  0.33333333  0.50000000  0.00000000  1
  Ti  Ti91  1  0.33333333  0.50000000  0.16666667  1
  Ti  Ti92  1  0.33333333  0.50000000  0.33333333  1
  Ti  Ti93  1  0.33333333  0.50000000  0.50000000  1
  Ti  Ti94  1  0.33333333  0.50000000  0.66666667  1
  Ti  Ti95  1  0.33333333  0.50000000  0.83333333  1
  Al  Al96  1  0.33333333  0.66666667  0.00000000  1
  Ti  Ti97  1  0.33333333  0.66666667  0.16666667  1
  Ti  Ti98  1  0.33333333  0.66666667  0.33333333  1
  Al  Al99  1  0.33333333  0.66666667  0.50000000  1
  Ti  Ti100  1  0.33333333  0.66666667  0.66666667  1
  Ti  Ti101  1  0.33333333  0.66666667  0.83333333  1
  Ti  Ti102  1  0.33333333  0.83333333  0.00000000  1
  Al  Al103  1  0.33333333  0.83333333  0.16666667  1
  Ti  Ti104  1  0.33333333  0.83333333  0.33333333  1
  Al  Al105  1  0.33333333  0.83333333  0.50000000  1
  Ti  Ti106  1  0.33333333  0.83333333  0.66666667  1
  Ti  Ti107  1  0.33333333  0.83333333  0.83333333  1
  Ti  Ti108  1  0.50000000  0.00000000  0.00000000  1
  Al  Al109  1  0.50000000  0.00000000  0.16666667  1
  Ti  Ti110  1  0.50000000  0.00000000  0.33333333  1
  Ti  Ti111  1  0.50000000  0.00000000  0.50000000  1
  Ti  Ti112  1  0.50000000  0.00000000  0.66666667  1
  Al  Al113  1  0.50000000  0.00000000  0.83333333  1
  Al  Al114  1  0.50000000  0.16666667  0.00000000  1
  Ti  Ti115  1  0.50000000  0.16666667  0.16666667  1
  Al  Al116  1  0.50000000  0.16666667  0.33333333  1
  Al  Al117  1  0.50000000  0.16666667  0.50000000  1
  Ti  Ti118  1  0.50000000  0.16666667  0.66666667  1
  Cr  Cr119  1  0.50000000  0.16666667  0.83333333  1
  Al  Al120  1  0.50000000  0.33333333  0.00000000  1
  Ti  Ti121  1  0.50000000  0.33333333  0.16666667  1
  Ti  Ti122  1  0.50000000  0.33333333  0.33333333  1
  Ti  Ti123  1  0.50000000  0.33333333  0.50000000  1
  Ti  Ti124  1  0.50000000  0.33333333  0.66666667  1
  Ti  Ti125  1  0.50000000  0.33333333  0.83333333  1
  Ti  Ti126  1  0.50000000  0.50000000  0.00000000  1
  Ti  Ti127  1  0.50000000  0.50000000  0.16666667  1
  Ti  Ti128  1  0.50000000  0.50000000  0.33333333  1
  Al  Al129  1  0.50000000  0.50000000  0.50000000  1
  Ti  Ti130  1  0.50000000  0.50000000  0.66666667  1
  Al  Al131  1  0.50000000  0.50000000  0.83333333  1
  Ti  Ti132  1  0.50000000  0.66666667  0.00000000  1
  Ti  Ti133  1  0.50000000  0.66666667  0.16666667  1
  Ti  Ti134  1  0.50000000  0.66666667  0.33333333  1
  Cr  Cr135  1  0.50000000  0.66666667  0.50000000  1
  Al  Al136  1  0.50000000  0.66666667  0.66666667  1
  Ti  Ti137  1  0.50000000  0.66666667  0.83333333  1
  Ti  Ti138  1  0.50000000  0.83333333  0.00000000  1
  Ti  Ti139  1  0.50000000  0.83333333  0.16666667  1
  Ti  Ti140  1  0.50000000  0.83333333  0.33333333  1
  Ti  Ti141  1  0.50000000  0.83333333  0.50000000  1
  Ti  Ti142  1  0.50000000  0.83333333  0.66666667  1
  Ti  Ti143  1  0.50000000  0.83333333  0.83333333  1
  Ti  Ti144  1  0.66666667  0.00000000  0.00000000  1
  Ti  Ti145  1  0.66666667  0.00000000  0.16666667  1
  Ti  Ti146  1  0.66666667  0.00000000  0.33333333  1
  Ti  Ti147  1  0.66666667  0.00000000  0.50000000  1
  Ti  Ti148  1  0.66666667  0.00000000  0.66666667  1
  Ti  Ti149  1  0.66666667  0.00000000  0.83333333  1
  Ti  Ti150  1  0.66666667  0.16666667  0.00000000  1
  Ti  Ti151  1  0.66666667  0.16666667  0.16666667  1
  Ti  Ti152  1  0.66666667  0.16666667  0.33333333  1
  Ti  Ti153  1  0.66666667  0.16666667  0.50000000  1
  Ti  Ti154  1  0.66666667  0.16666667  0.66666667  1
  Ti  Ti155  1  0.66666667  0.16666667  0.83333333  1
  Ti  Ti156  1  0.66666667  0.33333333  0.00000000  1
  Ti  Ti157  1  0.66666667  0.33333333  0.16666667  1
  Ti  Ti158  1  0.66666667  0.33333333  0.33333333  1
  Al  Al159  1  0.66666667  0.33333333  0.50000000  1
  Ti  Ti160  1  0.66666667  0.33333333  0.66666667  1
  Ti  Ti161  1  0.66666667  0.33333333  0.83333333  1
  Ti  Ti162  1  0.66666667  0.50000000  0.00000000  1
  Ti  Ti163  1  0.66666667  0.50000000  0.16666667  1
  Ti  Ti164  1  0.66666667  0.50000000  0.33333333  1
  Al  Al165  1  0.66666667  0.50000000  0.50000000  1
  Al  Al166  1  0.66666667  0.50000000  0.66666667  1
  Al  Al167  1  0.66666667  0.50000000  0.83333333  1
  Ti  Ti168  1  0.66666667  0.66666667  0.00000000  1
  Ti  Ti169  1  0.66666667  0.66666667  0.16666667  1
  Al  Al170  1  0.66666667  0.66666667  0.33333333  1
  Ti  Ti171  1  0.66666667  0.66666667  0.50000000  1
  Cr  Cr172  1  0.66666667  0.66666667  0.66666667  1
  Ti  Ti173  1  0.66666667  0.66666667  0.83333333  1
  Ti  Ti174  1  0.66666667  0.83333333  0.00000000  1
  Al  Al175  1  0.66666667  0.83333333  0.16666667  1
  Ti  Ti176  1  0.66666667  0.83333333  0.33333333  1
  Al  Al177  1  0.66666667  0.83333333  0.50000000  1
  Ti  Ti178  1  0.66666667  0.83333333  0.66666667  1
  Al  Al179  1  0.66666667  0.83333333  0.83333333  1
  Ti  Ti180  1  0.83333333  0.00000000  0.00000000  1
  Ti  Ti181  1  0.83333333  0.00000000  0.16666667  1
  Ti  Ti182  1  0.83333333  0.00000000  0.33333333  1
  Ti  Ti183  1  0.83333333  0.00000000  0.50000000  1
  Al  Al184  1  0.83333333  0.00000000  0.66666667  1
  Al  Al185  1  0.83333333  0.00000000  0.83333333  1
  Ti  Ti186  1  0.83333333  0.16666667  0.00000000  1
  Ti  Ti187  1  0.83333333  0.16666667  0.16666667  1
  Ti  Ti188  1  0.83333333  0.16666667  0.33333333  1
  Ti  Ti189  1  0.83333333  0.16666667  0.50000000  1
  Ti  Ti190  1  0.83333333  0.16666667  0.66666667  1
  Ti  Ti191  1  0.83333333  0.16666667  0.83333333  1
  Ti  Ti192  1  0.83333333  0.33333333  0.00000000  1
  Al  Al193  1  0.83333333  0.33333333  0.16666667  1
  Al  Al194  1  0.83333333  0.33333333  0.33333333  1
  Ti  Ti195  1  0.83333333  0.33333333  0.50000000  1
  Al  Al196  1  0.83333333  0.33333333  0.66666667  1
  Cr  Cr197  1  0.83333333  0.33333333  0.83333333  1
  Al  Al198  1  0.83333333  0.50000000  0.00000000  1
  Ti  Ti199  1  0.83333333  0.50000000  0.16666667  1
  Ti  Ti200  1  0.83333333  0.50000000  0.33333333  1
  Ti  Ti201  1  0.83333333  0.50000000  0.50000000  1
  Ti  Ti202  1  0.83333333  0.50000000  0.66666667  1
  Al  Al203  1  0.83333333  0.50000000  0.83333333  1
  Cr  Cr204  1  0.83333333  0.66666667  0.00000000  1
  Ti  Ti205  1  0.83333333  0.66666667  0.16666667  1
  Ti  Ti206  1  0.83333333  0.66666667  0.33333333  1
  Ti  Ti207  1  0.83333333  0.66666667  0.50000000  1
  Ti  Ti208  1  0.83333333  0.66666667  0.66666667  1
  Ti  Ti209  1  0.83333333  0.66666667  0.83333333  1
  Ti  Ti210  1  0.83333333  0.83333333  0.00000000  1
  Al  Al211  1  0.83333333  0.83333333  0.16666667  1
  Ti  Ti212  1  0.83333333  0.83333333  0.33333333  1
  Ti  Ti213  1  0.83333333  0.83333333  0.50000000  1
  Al  Al214  1  0.83333333  0.83333333  0.66666667  1
  Ti  Ti215  1  0.83333333  0.83333333  0.83333333  1
  Ti  Ti216  1  0.08333333  0.08333333  0.08333333  1
  Ti  Ti217  1  0.08333333  0.08333333  0.25000000  1
  Ti  Ti218  1  0.08333333  0.08333333  0.41666667  1
  Ti  Ti219  1  0.08333333  0.08333333  0.58333333  1
  Ti  Ti220  1  0.08333333  0.08333333  0.75000000  1
  Al  Al221  1  0.08333333  0.08333333  0.91666667  1
  Al  Al222  1  0.08333333  0.25000000  0.08333333  1
  Ti  Ti223  1  0.08333333  0.25000000  0.25000000  1
  Ti  Ti224  1  0.08333333  0.25000000  0.41666667  1
  Ti  Ti225  1  0.08333333  0.25000000  0.58333333  1
  Cr  Cr226  1  0.08333333  0.25000000  0.75000000  1
  Ti  Ti227  1  0.08333333  0.25000000  0.91666667  1
  Ti  Ti228  1  0.08333333  0.41666667  0.08333333  1
  Ti  Ti229  1  0.08333333  0.41666667  0.25000000  1
  Ti  Ti230  1  0.08333333  0.41666667  0.41666667  1
  Ti  Ti231  1  0.08333333  0.41666667  0.58333333  1
  Ti  Ti232  1  0.08333333  0.41666667  0.75000000  1
  Ti  Ti233  1  0.08333333  0.41666667  0.91666667  1
  Ti  Ti234  1  0.08333333  0.58333333  0.08333333  1
  Ti  Ti235  1  0.08333333  0.58333333  0.25000000  1
  Ti  Ti236  1  0.08333333  0.58333333  0.41666667  1
  Ti  Ti237  1  0.08333333  0.58333333  0.58333333  1
  Ti  Ti238  1  0.08333333  0.58333333  0.75000000  1
  Cr  Cr239  1  0.08333333  0.58333333  0.91666667  1
  Ti  Ti240  1  0.08333333  0.75000000  0.08333333  1
  Ti  Ti241  1  0.08333333  0.75000000  0.25000000  1
  Ti  Ti242  1  0.08333333  0.75000000  0.41666667  1
  Ti  Ti243  1  0.08333333  0.75000000  0.58333333  1
  Ti  Ti244  1  0.08333333  0.75000000  0.75000000  1
  Cr  Cr245  1  0.08333333  0.75000000  0.91666667  1
  Ti  Ti246  1  0.08333333  0.91666667  0.08333333  1
  Ti  Ti247  1  0.08333333  0.91666667  0.25000000  1
  Ti  Ti248  1  0.08333333  0.91666667  0.41666667  1
  Ti  Ti249  1  0.08333333  0.91666667  0.58333333  1
  Ti  Ti250  1  0.08333333  0.91666667  0.75000000  1
  Al  Al251  1  0.08333333  0.91666667  0.91666667  1
  Ti  Ti252  1  0.25000000  0.08333333  0.08333333  1
  Ti  Ti253  1  0.25000000  0.08333333  0.25000000  1
  Ti  Ti254  1  0.25000000  0.08333333  0.41666667  1
  Al  Al255  1  0.25000000  0.08333333  0.58333333  1
  Al  Al256  1  0.25000000  0.08333333  0.75000000  1
  Ti  Ti257  1  0.25000000  0.08333333  0.91666667  1
  Ti  Ti258  1  0.25000000  0.25000000  0.08333333  1
  Ti  Ti259  1  0.25000000  0.25000000  0.25000000  1
  Ti  Ti260  1  0.25000000  0.25000000  0.41666667  1
  Ti  Ti261  1  0.25000000  0.25000000  0.58333333  1
  Ti  Ti262  1  0.25000000  0.25000000  0.75000000  1
  Al  Al263  1  0.25000000  0.25000000  0.91666667  1
  Ti  Ti264  1  0.25000000  0.41666667  0.08333333  1
  Ti  Ti265  1  0.25000000  0.41666667  0.25000000  1
  Ti  Ti266  1  0.25000000  0.41666667  0.41666667  1
  Ti  Ti267  1  0.25000000  0.41666667  0.58333333  1
  Ti  Ti268  1  0.25000000  0.41666667  0.75000000  1
  Ti  Ti269  1  0.25000000  0.41666667  0.91666667  1
  Cr  Cr270  1  0.25000000  0.58333333  0.08333333  1
  Cr  Cr271  1  0.25000000  0.58333333  0.25000000  1
  Ti  Ti272  1  0.25000000  0.58333333  0.41666667  1
  Al  Al273  1  0.25000000  0.58333333  0.58333333  1
  Ti  Ti274  1  0.25000000  0.58333333  0.75000000  1
  Ti  Ti275  1  0.25000000  0.58333333  0.91666667  1
  Ti  Ti276  1  0.25000000  0.75000000  0.08333333  1
  Ti  Ti277  1  0.25000000  0.75000000  0.25000000  1
  Al  Al278  1  0.25000000  0.75000000  0.41666667  1
  Ti  Ti279  1  0.25000000  0.75000000  0.58333333  1
  Ti  Ti280  1  0.25000000  0.75000000  0.75000000  1
  Ti  Ti281  1  0.25000000  0.75000000  0.91666667  1
  Ti  Ti282  1  0.25000000  0.91666667  0.08333333  1
  Ti  Ti283  1  0.25000000  0.91666667  0.25000000  1
  Ti  Ti284  1  0.25000000  0.91666667  0.41666667  1
  Cr  Cr285  1  0.25000000  0.91666667  0.58333333  1
  Ti  Ti286  1  0.25000000  0.91666667  0.75000000  1
  Ti  Ti287  1  0.25000000  0.91666667  0.91666667  1
  Ti  Ti288  1  0.41666667  0.08333333  0.08333333  1
  Ti  Ti289  1  0.41666667  0.08333333  0.25000000  1
  Ti  Ti290  1  0.41666667  0.08333333  0.41666667  1
  Ti  Ti291  1  0.41666667  0.08333333  0.58333333  1
  Ti  Ti292  1  0.41666667  0.08333333  0.75000000  1
  Ti  Ti293  1  0.41666667  0.08333333  0.91666667  1
  Ti  Ti294  1  0.41666667  0.25000000  0.08333333  1
  Ti  Ti295  1  0.41666667  0.25000000  0.25000000  1
  Ti  Ti296  1  0.41666667  0.25000000  0.41666667  1
  Ti  Ti297  1  0.41666667  0.25000000  0.58333333  1
  Cr  Cr298  1  0.41666667  0.25000000  0.75000000  1
  Ti  Ti299  1  0.41666667  0.25000000  0.91666667  1
  Ti  Ti300  1  0.41666667  0.41666667  0.08333333  1
  Ti  Ti301  1  0.41666667  0.41666667  0.25000000  1
  Ti  Ti302  1  0.41666667  0.41666667  0.41666667  1
  Ti  Ti303  1  0.41666667  0.41666667  0.58333333  1
  Ti  Ti304  1  0.41666667  0.41666667  0.75000000  1
  Cr  Cr305  1  0.41666667  0.41666667  0.91666667  1
  Ti  Ti306  1  0.41666667  0.58333333  0.08333333  1
  Al  Al307  1  0.41666667  0.58333333  0.25000000  1
  Ti  Ti308  1  0.41666667  0.58333333  0.41666667  1
  Ti  Ti309  1  0.41666667  0.58333333  0.58333333  1
  Ti  Ti310  1  0.41666667  0.58333333  0.75000000  1
  Ti  Ti311  1  0.41666667  0.58333333  0.91666667  1
  Ti  Ti312  1  0.41666667  0.75000000  0.08333333  1
  Al  Al313  1  0.41666667  0.75000000  0.25000000  1
  Ti  Ti314  1  0.41666667  0.75000000  0.41666667  1
  Ti  Ti315  1  0.41666667  0.75000000  0.58333333  1
  Ti  Ti316  1  0.41666667  0.75000000  0.75000000  1
  Ti  Ti317  1  0.41666667  0.75000000  0.91666667  1
  Ti  Ti318  1  0.41666667  0.91666667  0.08333333  1
  Al  Al319  1  0.41666667  0.91666667  0.25000000  1
  Ti  Ti320  1  0.41666667  0.91666667  0.41666667  1
  Ti  Ti321  1  0.41666667  0.91666667  0.58333333  1
  Ti  Ti322  1  0.41666667  0.91666667  0.75000000  1
  Ti  Ti323  1  0.41666667  0.91666667  0.91666667  1
  Ti  Ti324  1  0.58333333  0.08333333  0.08333333  1
  Ti  Ti325  1  0.58333333  0.08333333  0.25000000  1
  Ti  Ti326  1  0.58333333  0.08333333  0.41666667  1
  Ti  Ti327  1  0.58333333  0.08333333  0.58333333  1
  Ti  Ti328  1  0.58333333  0.08333333  0.75000000  1
  Ti  Ti329  1  0.58333333  0.08333333  0.91666667  1
  Ti  Ti330  1  0.58333333  0.25000000  0.08333333  1
  Al  Al331  1  0.58333333  0.25000000  0.25000000  1
  Ti  Ti332  1  0.58333333  0.25000000  0.41666667  1
  Al  Al333  1  0.58333333  0.25000000  0.58333333  1
  Ti  Ti334  1  0.58333333  0.25000000  0.75000000  1
  Al  Al335  1  0.58333333  0.25000000  0.91666667  1
  Ti  Ti336  1  0.58333333  0.41666667  0.08333333  1
  Ti  Ti337  1  0.58333333  0.41666667  0.25000000  1
  Ti  Ti338  1  0.58333333  0.41666667  0.41666667  1
  Ti  Ti339  1  0.58333333  0.41666667  0.58333333  1
  Ti  Ti340  1  0.58333333  0.41666667  0.75000000  1
  Ti  Ti341  1  0.58333333  0.41666667  0.91666667  1
  Al  Al342  1  0.58333333  0.58333333  0.08333333  1
  Ti  Ti343  1  0.58333333  0.58333333  0.25000000  1
  Cr  Cr344  1  0.58333333  0.58333333  0.41666667  1
  Ti  Ti345  1  0.58333333  0.58333333  0.58333333  1
  Ti  Ti346  1  0.58333333  0.58333333  0.75000000  1
  Ti  Ti347  1  0.58333333  0.58333333  0.91666667  1
  Ti  Ti348  1  0.58333333  0.75000000  0.08333333  1
  Ti  Ti349  1  0.58333333  0.75000000  0.25000000  1
  Ti  Ti350  1  0.58333333  0.75000000  0.41666667  1
  Ti  Ti351  1  0.58333333  0.75000000  0.58333333  1
  Ti  Ti352  1  0.58333333  0.75000000  0.75000000  1
  Ti  Ti353  1  0.58333333  0.75000000  0.91666667  1
  Al  Al354  1  0.58333333  0.91666667  0.08333333  1
  Ti  Ti355  1  0.58333333  0.91666667  0.25000000  1
  Al  Al356  1  0.58333333  0.91666667  0.41666667  1
  Al  Al357  1  0.58333333  0.91666667  0.58333333  1
  Ti  Ti358  1  0.58333333  0.91666667  0.75000000  1
  Ti  Ti359  1  0.58333333  0.91666667  0.91666667  1
  Ti  Ti360  1  0.75000000  0.08333333  0.08333333  1
  Ti  Ti361  1  0.75000000  0.08333333  0.25000000  1
  Ti  Ti362  1  0.75000000  0.08333333  0.41666667  1
  Ti  Ti363  1  0.75000000  0.08333333  0.58333333  1
  Ti  Ti364  1  0.75000000  0.08333333  0.75000000  1
  Ti  Ti365  1  0.75000000  0.08333333  0.91666667  1
  Ti  Ti366  1  0.75000000  0.25000000  0.08333333  1
  Ti  Ti367  1  0.75000000  0.25000000  0.25000000  1
  Ti  Ti368  1  0.75000000  0.25000000  0.41666667  1
  Al  Al369  1  0.75000000  0.25000000  0.58333333  1
  Cr  Cr370  1  0.75000000  0.25000000  0.75000000  1
  Ti  Ti371  1  0.75000000  0.25000000  0.91666667  1
  Ti  Ti372  1  0.75000000  0.41666667  0.08333333  1
  Ti  Ti373  1  0.75000000  0.41666667  0.25000000  1
  Al  Al374  1  0.75000000  0.41666667  0.41666667  1
  Ti  Ti375  1  0.75000000  0.41666667  0.58333333  1
  Ti  Ti376  1  0.75000000  0.41666667  0.75000000  1
  Ti  Ti377  1  0.75000000  0.41666667  0.91666667  1
  Ti  Ti378  1  0.75000000  0.58333333  0.08333333  1
  Ti  Ti379  1  0.75000000  0.58333333  0.25000000  1
  Ti  Ti380  1  0.75000000  0.58333333  0.41666667  1
  Ti  Ti381  1  0.75000000  0.58333333  0.58333333  1
  Ti  Ti382  1  0.75000000  0.58333333  0.75000000  1
  Ti  Ti383  1  0.75000000  0.58333333  0.91666667  1
  Al  Al384  1  0.75000000  0.75000000  0.08333333  1
  Al  Al385  1  0.75000000  0.75000000  0.25000000  1
  Ti  Ti386  1  0.75000000  0.75000000  0.41666667  1
  Ti  Ti387  1  0.75000000  0.75000000  0.58333333  1
  Ti  Ti388  1  0.75000000  0.75000000  0.75000000  1
  Ti  Ti389  1  0.75000000  0.75000000  0.91666667  1
  Ti  Ti390  1  0.75000000  0.91666667  0.08333333  1
  Ti  Ti391  1  0.75000000  0.91666667  0.25000000  1
  Ti  Ti392  1  0.75000000  0.91666667  0.41666667  1
  Ti  Ti393  1  0.75000000  0.91666667  0.58333333  1
  Ti  Ti394  1  0.75000000  0.91666667  0.75000000  1
  Ti  Ti395  1  0.75000000  0.91666667  0.91666667  1
  Ti  Ti396  1  0.91666667  0.08333333  0.08333333  1
  Ti  Ti397  1  0.91666667  0.08333333  0.25000000  1
  Ti  Ti398  1  0.91666667  0.08333333  0.41666667  1
  Ti  Ti399  1  0.91666667  0.08333333  0.58333333  1
  Ti  Ti400  1  0.91666667  0.08333333  0.75000000  1
  Ti  Ti401  1  0.91666667  0.08333333  0.91666667  1
  Ti  Ti402  1  0.91666667  0.25000000  0.08333333  1
  Al  Al403  1  0.91666667  0.25000000  0.25000000  1
  Ti  Ti404  1  0.91666667  0.25000000  0.41666667  1
  Ti  Ti405  1  0.91666667  0.25000000  0.58333333  1
  Ti  Ti406  1  0.91666667  0.25000000  0.75000000  1
  Al  Al407  1  0.91666667  0.25000000  0.91666667  1
  Al  Al408  1  0.91666667  0.41666667  0.08333333  1
  Al  Al409  1  0.91666667  0.41666667  0.25000000  1
  Al  Al410  1  0.91666667  0.41666667  0.41666667  1
  Cr  Cr411  1  0.91666667  0.41666667  0.58333333  1
  Ti  Ti412  1  0.91666667  0.41666667  0.75000000  1
  Ti  Ti413  1  0.91666667  0.41666667  0.91666667  1
  Ti  Ti414  1  0.91666667  0.58333333  0.08333333  1
  Ti  Ti415  1  0.91666667  0.58333333  0.25000000  1
  Ti  Ti416  1  0.91666667  0.58333333  0.41666667  1
  Al  Al417  1  0.91666667  0.58333333  0.58333333  1
  Al  Al418  1  0.91666667  0.58333333  0.75000000  1
  Ti  Ti419  1  0.91666667  0.58333333  0.91666667  1
  Ti  Ti420  1  0.91666667  0.75000000  0.08333333  1
  Ti  Ti421  1  0.91666667  0.75000000  0.25000000  1
  Ti  Ti422  1  0.91666667  0.75000000  0.41666667  1
  Ti  Ti423  1  0.91666667  0.75000000  0.58333333  1
  Ti  Ti424  1  0.91666667  0.75000000  0.75000000  1
  Ti  Ti425  1  0.91666667  0.75000000  0.91666667  1
  Ti  Ti426  1  0.91666667  0.91666667  0.08333333  1
  Cr  Cr427  1  0.91666667  0.91666667  0.25000000  1
  Al  Al428  1  0.91666667  0.91666667  0.41666667  1
  Al  Al429  1  0.91666667  0.91666667  0.58333333  1
  Ti  Ti430  1  0.91666667  0.91666667  0.75000000  1
  Al  Al431  1  0.91666667  0.91666667  0.91666667  1
